<?xml version="1.0" encoding="UTF-8"?>
<!--
    Edge definitions: 2 lanes per approach, speed 50 km/h (13.89 m/s).
    Inbound edges: N2C, S2C, E2C, W2C
    Outbound edges: C2N, C2S, C2E, C2W
-->
<edges xmlns:xsi="http://www.w3.org/2001/XMLSchema-instance"
       xsi:noNamespaceSchemaLocation="http://sumo.dlr.de/xsd/edges_file.xsd">
    <edge id="N2C" from="N" to="C" numLanes="2" speed="13.89"/>
    <edge id="C2N" from="C" to="N" numLanes="2" speed="13.89"/>
    <edge id="S2C" from="S" to="C" numLanes="2" speed="13.89"/>
    <edge id="C2S" from="C" to="S" numLanes="2" speed="13.89"/>
    <edge id="E2C" from="E" to="C" numLanes="2" speed="13.89"/>
    <edge id="C2E" from="C" to="E" numLanes="2" speed="13.89"/>
    <edge id="W2C" from="W" to="C" numLanes="2" speed="13.89"/>
    <edge id="C2W" from="C" to="W" numLanes="2" speed="13.89"/>
</edges>
