<?xml version="1.0" encoding="UTF-8"?>

<!-- generated on 2026-04-14T01:31:29.725410-05:00 by Eclipse SUMO netconvert 1.26.0
<netconvertConfiguration xmlns:xsi="http://www.w3.org/2001/XMLSchema-instance" xsi:noNamespaceSchemaLocation="http://sumo.dlr.de/xsd/netconvertConfiguration.xsd">

    <input>
        <node-files value="cross.nod.xml"/>
        <edge-files value="cross.edg.xml"/>
    </input>

    <output>
        <output-file value="cross.net.xml"/>
    </output>

    <tls_building>
        <tls.default-type value="static"/>
    </tls_building>

    <junctions>
        <no-turnarounds value="true"/>
    </junctions>

    <report>
        <no-warnings value="true"/>
    </report>

</netconvertConfiguration>
-->

<net version="1.20" junctionCornerDetail="5" limitTurnSpeed="5.50" xmlns:xsi="http://www.w3.org/2001/XMLSchema-instance" xsi:noNamespaceSchemaLocation="http://sumo.dlr.de/xsd/net_file.xsd">

    <location netOffset="300.00,300.00" convBoundary="0.00,0.00,600.00,600.00" origBoundary="-300.00,-300.00,300.00,300.00" projParameter="!"/>

    <edge id=":C_0" function="internal">
        <lane id=":C_0_0" index="0" speed="6.51" length="9.03" shape="295.20,310.40 294.85,307.95 293.80,306.20 292.05,305.15 289.60,304.80"/>
    </edge>
    <edge id=":C_1" function="internal">
        <lane id=":C_1_0" index="0" speed="13.89" length="20.80" shape="295.20,310.40 295.20,289.60"/>
        <lane id=":C_1_1" index="1" speed="13.89" length="20.80" shape="298.40,310.40 298.40,289.60"/>
    </edge>
    <edge id=":C_3" function="internal">
        <lane id=":C_3_0" index="0" speed="9.26" length="5.01" shape="298.40,310.40 299.11,305.44"/>
    </edge>
    <edge id=":C_16" function="internal">
        <lane id=":C_16_0" index="0" speed="9.26" length="14.34" shape="299.11,305.44 299.15,305.15 301.40,301.40 305.15,299.15 310.40,298.40"/>
    </edge>
    <edge id=":C_4" function="internal">
        <lane id=":C_4_0" index="0" speed="6.51" length="9.03" shape="310.40,304.80 307.95,305.15 306.20,306.20 305.15,307.95 304.80,310.40"/>
    </edge>
    <edge id=":C_5" function="internal">
        <lane id=":C_5_0" index="0" speed="13.89" length="20.80" shape="310.40,304.80 289.60,304.80"/>
        <lane id=":C_5_1" index="1" speed="13.89" length="20.80" shape="310.40,301.60 289.60,301.60"/>
    </edge>
    <edge id=":C_7" function="internal">
        <lane id=":C_7_0" index="0" speed="9.26" length="5.01" shape="310.40,301.60 305.44,300.89"/>
    </edge>
    <edge id=":C_17" function="internal">
        <lane id=":C_17_0" index="0" speed="9.26" length="14.34" shape="305.44,300.89 305.15,300.85 301.40,298.60 299.15,294.85 298.40,289.60"/>
    </edge>
    <edge id=":C_8" function="internal">
        <lane id=":C_8_0" index="0" speed="6.51" length="9.03" shape="304.80,289.60 305.15,292.05 306.20,293.80 307.95,294.85 310.40,295.20"/>
    </edge>
    <edge id=":C_9" function="internal">
        <lane id=":C_9_0" index="0" speed="13.89" length="20.80" shape="304.80,289.60 304.80,310.40"/>
        <lane id=":C_9_1" index="1" speed="13.89" length="20.80" shape="301.60,289.60 301.60,310.40"/>
    </edge>
    <edge id=":C_11" function="internal">
        <lane id=":C_11_0" index="0" speed="9.26" length="5.01" shape="301.60,289.60 300.89,294.56"/>
    </edge>
    <edge id=":C_18" function="internal">
        <lane id=":C_18_0" index="0" speed="9.26" length="14.34" shape="300.89,294.56 300.85,294.85 298.60,298.60 294.85,300.85 289.60,301.60"/>
    </edge>
    <edge id=":C_12" function="internal">
        <lane id=":C_12_0" index="0" speed="6.51" length="9.03" shape="289.60,295.20 292.05,294.85 293.80,293.80 294.85,292.05 295.20,289.60"/>
    </edge>
    <edge id=":C_13" function="internal">
        <lane id=":C_13_0" index="0" speed="13.89" length="20.80" shape="289.60,295.20 310.40,295.20"/>
        <lane id=":C_13_1" index="1" speed="13.89" length="20.80" shape="289.60,298.40 310.40,298.40"/>
    </edge>
    <edge id=":C_15" function="internal">
        <lane id=":C_15_0" index="0" speed="9.26" length="5.01" shape="289.60,298.40 294.56,299.11"/>
    </edge>
    <edge id=":C_19" function="internal">
        <lane id=":C_19_0" index="0" speed="9.26" length="14.34" shape="294.56,299.11 294.85,299.15 298.60,301.40 300.85,305.15 301.60,310.40"/>
    </edge>

    <edge id="C2E" from="C" to="E" priority="-1">
        <lane id="C2E_0" index="0" speed="13.89" length="289.60" shape="310.40,295.20 600.00,295.20"/>
        <lane id="C2E_1" index="1" speed="13.89" length="289.60" shape="310.40,298.40 600.00,298.40"/>
    </edge>
    <edge id="C2N" from="C" to="N" priority="-1">
        <lane id="C2N_0" index="0" speed="13.89" length="289.60" shape="304.80,310.40 304.80,600.00"/>
        <lane id="C2N_1" index="1" speed="13.89" length="289.60" shape="301.60,310.40 301.60,600.00"/>
    </edge>
    <edge id="C2S" from="C" to="S" priority="-1">
        <lane id="C2S_0" index="0" speed="13.89" length="289.60" shape="295.20,289.60 295.20,0.00"/>
        <lane id="C2S_1" index="1" speed="13.89" length="289.60" shape="298.40,289.60 298.40,0.00"/>
    </edge>
    <edge id="C2W" from="C" to="W" priority="-1">
        <lane id="C2W_0" index="0" speed="13.89" length="289.60" shape="289.60,304.80 0.00,304.80"/>
        <lane id="C2W_1" index="1" speed="13.89" length="289.60" shape="289.60,301.60 0.00,301.60"/>
    </edge>
    <edge id="E2C" from="E" to="C" priority="-1">
        <lane id="E2C_0" index="0" speed="13.89" length="289.60" shape="600.00,304.80 310.40,304.80"/>
        <lane id="E2C_1" index="1" speed="13.89" length="289.60" shape="600.00,301.60 310.40,301.60"/>
    </edge>
    <edge id="N2C" from="N" to="C" priority="-1">
        <lane id="N2C_0" index="0" speed="13.89" length="289.60" shape="295.20,600.00 295.20,310.40"/>
        <lane id="N2C_1" index="1" speed="13.89" length="289.60" shape="298.40,600.00 298.40,310.40"/>
    </edge>
    <edge id="S2C" from="S" to="C" priority="-1">
        <lane id="S2C_0" index="0" speed="13.89" length="289.60" shape="304.80,0.00 304.80,289.60"/>
        <lane id="S2C_1" index="1" speed="13.89" length="289.60" shape="301.60,0.00 301.60,289.60"/>
    </edge>
    <edge id="W2C" from="W" to="C" priority="-1">
        <lane id="W2C_0" index="0" speed="13.89" length="289.60" shape="0.00,295.20 289.60,295.20"/>
        <lane id="W2C_1" index="1" speed="13.89" length="289.60" shape="0.00,298.40 289.60,298.40"/>
    </edge>

    <tlLogic id="C" type="static" programID="0" offset="0">
        <phase duration="42" state="GGGgrrrrGGGgrrrr"/>
        <phase duration="3"  state="yyyyrrrryyyyrrrr"/>
        <phase duration="42" state="rrrrGGGgrrrrGGGg"/>
        <phase duration="3"  state="rrrryyyyrrrryyyy"/>
    </tlLogic>

    <junction id="C" type="traffic_light" x="300.00" y="300.00" incLanes="N2C_0 N2C_1 E2C_0 E2C_1 S2C_0 S2C_1 W2C_0 W2C_1" intLanes=":C_0_0 :C_1_0 :C_1_1 :C_16_0 :C_4_0 :C_5_0 :C_5_1 :C_17_0 :C_8_0 :C_9_0 :C_9_1 :C_18_0 :C_12_0 :C_13_0 :C_13_1 :C_19_0" shape="293.60,310.40 306.40,310.40 306.84,308.18 307.40,307.40 308.18,306.84 309.18,306.51 310.40,306.40 310.40,293.60 308.18,293.16 307.40,292.60 306.84,291.82 306.51,290.82 306.40,289.60 293.60,289.60 293.16,291.82 292.60,292.60 291.82,293.16 290.82,293.49 289.60,293.60 289.60,306.40 291.82,306.84 292.60,307.40 293.16,308.18 293.49,309.18">
        <request index="0"  response="0000000000000000" foes="0000000001100000" cont="0"/>
        <request index="1"  response="1000000000000000" foes="1111100011100000" cont="0"/>
        <request index="2"  response="1000000010000000" foes="1111100011100000" cont="0"/>
        <request index="3"  response="1000011010000000" foes="1110011011100000" cont="1"/>
        <request index="4"  response="0000011000000000" foes="0000011000000000" cont="0"/>
        <request index="5"  response="0000111000001111" foes="1000111000001111" cont="0"/>
        <request index="6"  response="0000111000001111" foes="1000111000001111" cont="0"/>
        <request index="7"  response="0110111000001110" foes="0110111000001110" cont="1"/>
        <request index="8"  response="0000000000000000" foes="0110000000000000" cont="0"/>
        <request index="9"  response="0000000010000000" foes="1110000011111000" cont="0"/>
        <request index="10" response="1000000010000000" foes="1110000011111000" cont="0"/>
        <request index="11" response="1000000010000110" foes="1110000011100110" cont="1"/>
        <request index="12" response="0000000000000110" foes="0000000000000110" cont="0"/>
        <request index="13" response="0000111100001110" foes="0000111110001110" cont="0"/>
        <request index="14" response="0000111100001110" foes="0000111110001110" cont="0"/>
        <request index="15" response="0000111001101110" foes="0000111001101110" cont="1"/>
    </junction>
    <junction id="E" type="dead_end" x="600.00" y="300.00" incLanes="C2E_0 C2E_1" intLanes="" shape="600.00,300.00 600.00,293.60 600.00,300.00"/>
    <junction id="N" type="dead_end" x="300.00" y="600.00" incLanes="C2N_0 C2N_1" intLanes="" shape="300.00,600.00 306.40,600.00 300.00,600.00"/>
    <junction id="S" type="dead_end" x="300.00" y="0.00" incLanes="C2S_0 C2S_1" intLanes="" shape="300.00,0.00 293.60,0.00 300.00,0.00"/>
    <junction id="W" type="dead_end" x="0.00" y="300.00" incLanes="C2W_0 C2W_1" intLanes="" shape="0.00,300.00 0.00,306.40 0.00,300.00"/>

    <junction id=":C_16_0" type="internal" x="299.11" y="305.44" incLanes=":C_3_0 S2C_0 S2C_1" intLanes=":C_5_0 :C_5_1 :C_7_0 :C_8_0 :C_9_0 :C_9_1 :C_13_0 :C_13_1 :C_15_0"/>
    <junction id=":C_17_0" type="internal" x="305.44" y="300.89" incLanes=":C_7_0 W2C_0 W2C_1" intLanes=":C_1_0 :C_1_1 :C_3_0 :C_9_0 :C_9_1 :C_11_0 :C_12_0 :C_13_0 :C_13_1"/>
    <junction id=":C_18_0" type="internal" x="300.89" y="294.56" incLanes=":C_11_0 N2C_0 N2C_1" intLanes=":C_0_0 :C_1_0 :C_1_1 :C_5_0 :C_5_1 :C_7_0 :C_13_0 :C_13_1 :C_15_0"/>
    <junction id=":C_19_0" type="internal" x="294.56" y="299.11" incLanes=":C_15_0 E2C_0 E2C_1" intLanes=":C_1_0 :C_1_1 :C_3_0 :C_4_0 :C_5_0 :C_5_1 :C_9_0 :C_9_1 :C_11_0"/>

    <connection from="E2C" to="C2N" fromLane="0" toLane="0" via=":C_4_0" tl="C" linkIndex="4" dir="r" state="o"/>
    <connection from="E2C" to="C2W" fromLane="0" toLane="0" via=":C_5_0" tl="C" linkIndex="5" dir="s" state="o"/>
    <connection from="E2C" to="C2W" fromLane="1" toLane="1" via=":C_5_1" tl="C" linkIndex="6" dir="s" state="o"/>
    <connection from="E2C" to="C2S" fromLane="1" toLane="1" via=":C_7_0" tl="C" linkIndex="7" dir="l" state="o"/>
    <connection from="N2C" to="C2W" fromLane="0" toLane="0" via=":C_0_0" tl="C" linkIndex="0" dir="r" state="O"/>
    <connection from="N2C" to="C2S" fromLane="0" toLane="0" via=":C_1_0" tl="C" linkIndex="1" dir="s" state="O"/>
    <connection from="N2C" to="C2S" fromLane="1" toLane="1" via=":C_1_1" tl="C" linkIndex="2" dir="s" state="O"/>
    <connection from="N2C" to="C2E" fromLane="1" toLane="1" via=":C_3_0" tl="C" linkIndex="3" dir="l" state="o"/>
    <connection from="S2C" to="C2E" fromLane="0" toLane="0" via=":C_8_0" tl="C" linkIndex="8" dir="r" state="O"/>
    <connection from="S2C" to="C2N" fromLane="0" toLane="0" via=":C_9_0" tl="C" linkIndex="9" dir="s" state="O"/>
    <connection from="S2C" to="C2N" fromLane="1" toLane="1" via=":C_9_1" tl="C" linkIndex="10" dir="s" state="O"/>
    <connection from="S2C" to="C2W" fromLane="1" toLane="1" via=":C_11_0" tl="C" linkIndex="11" dir="l" state="o"/>
    <connection from="W2C" to="C2S" fromLane="0" toLane="0" via=":C_12_0" tl="C" linkIndex="12" dir="r" state="o"/>
    <connection from="W2C" to="C2E" fromLane="0" toLane="0" via=":C_13_0" tl="C" linkIndex="13" dir="s" state="o"/>
    <connection from="W2C" to="C2E" fromLane="1" toLane="1" via=":C_13_1" tl="C" linkIndex="14" dir="s" state="o"/>
    <connection from="W2C" to="C2N" fromLane="1" toLane="1" via=":C_15_0" tl="C" linkIndex="15" dir="l" state="o"/>

    <connection from=":C_0" to="C2W" fromLane="0" toLane="0" dir="r" state="M"/>
    <connection from=":C_1" to="C2S" fromLane="0" toLane="0" dir="s" state="M"/>
    <connection from=":C_1" to="C2S" fromLane="1" toLane="1" dir="s" state="M"/>
    <connection from=":C_3" to="C2E" fromLane="0" toLane="1" via=":C_16_0" dir="l" state="m"/>
    <connection from=":C_16" to="C2E" fromLane="0" toLane="1" dir="l" state="M"/>
    <connection from=":C_4" to="C2N" fromLane="0" toLane="0" dir="r" state="M"/>
    <connection from=":C_5" to="C2W" fromLane="0" toLane="0" dir="s" state="M"/>
    <connection from=":C_5" to="C2W" fromLane="1" toLane="1" dir="s" state="M"/>
    <connection from=":C_7" to="C2S" fromLane="0" toLane="1" via=":C_17_0" dir="l" state="m"/>
    <connection from=":C_17" to="C2S" fromLane="0" toLane="1" dir="l" state="M"/>
    <connection from=":C_8" to="C2E" fromLane="0" toLane="0" dir="r" state="M"/>
    <connection from=":C_9" to="C2N" fromLane="0" toLane="0" dir="s" state="M"/>
    <connection from=":C_9" to="C2N" fromLane="1" toLane="1" dir="s" state="M"/>
    <connection from=":C_11" to="C2W" fromLane="0" toLane="1" via=":C_18_0" dir="l" state="m"/>
    <connection from=":C_18" to="C2W" fromLane="0" toLane="1" dir="l" state="M"/>
    <connection from=":C_12" to="C2S" fromLane="0" toLane="0" dir="r" state="M"/>
    <connection from=":C_13" to="C2E" fromLane="0" toLane="0" dir="s" state="M"/>
    <connection from=":C_13" to="C2E" fromLane="1" toLane="1" dir="s" state="M"/>
    <connection from=":C_15" to="C2N" fromLane="0" toLane="1" via=":C_19_0" dir="l" state="m"/>
    <connection from=":C_19" to="C2N" fromLane="0" toLane="1" dir="l" state="M"/>

</net>
